<?xml version="1.0" encoding="UTF-8"?>

<edges version="0.13" xmlns:xsi="http://www.w3.org/2001/XMLSchema-instance" xsi:noNamespaceSchemaLocation="http://sumo.dlr.de/xsd/edges_file.xsd">
    <edge id="CE" from="C" to="E" priority="1" numLanes="2" disallow="pedestrian" speed="11.28"/>
    <edge id="CW" from="C" to="W" priority="1" numLanes="2" disallow="pedestrian" speed="13.28"/>
    <edge id="EC" from="E" to="C" priority="1" numLanes="2" disallow="pedestrian" speed="13.28"/>
    <edge id="WC" from="W" to="C" priority="1" numLanes="2" disallow="pedestrian" speed="11.28"/>

    <edge id="NC" from="N" to="C" priority="1" numLanes="1" allow="pedestrian" speed="1.00" spreadType="center" width="3.00"/>
    <edge id="CS" from="C" to="S" priority="1" numLanes="1" allow="pedestrian" speed="1.00" spreadType="center" width="3.00"/>
</edges>